Version 4
SHEET 1 2176 680
WIRE 656 -272 640 -272
WIRE 1280 -272 1264 -272
WIRE 832 -192 704 -192
WIRE 1264 -192 1264 -272
WIRE 1264 -192 1200 -192
WIRE 1456 -192 1328 -192
WIRE 704 -176 704 -192
WIRE 1328 -176 1328 -192
WIRE 640 -96 640 -272
WIRE 656 -96 640 -96
WIRE 1264 -96 1264 -192
WIRE 1280 -96 1264 -96
WIRE 304 -32 304 -80
WIRE 512 -32 512 -80
WIRE 928 -32 928 -80
WIRE 1104 -32 1104 -80
WIRE 256 -16 224 -16
WIRE 464 -16 432 -16
WIRE 880 -16 848 -16
WIRE 1056 -16 1024 -16
WIRE 112 80 32 80
WIRE 224 80 224 -16
WIRE 224 80 192 80
WIRE 304 80 304 64
WIRE 304 80 224 80
WIRE 368 80 304 80
WIRE 432 80 432 -16
WIRE 432 80 368 80
WIRE 512 80 512 64
WIRE 608 80 512 80
WIRE 640 80 640 -96
WIRE 640 80 608 80
WIRE 656 80 640 80
WIRE 848 80 848 -16
WIRE 848 80 736 80
WIRE 928 80 928 64
WIRE 928 80 848 80
WIRE 1024 80 1024 -16
WIRE 1024 80 928 80
WIRE 1104 80 1104 64
WIRE 1184 80 1104 80
WIRE 1200 80 1200 -192
WIRE 1200 80 1184 80
WIRE 1232 80 1200 80
WIRE 304 96 304 80
WIRE 512 96 512 80
WIRE 928 96 928 80
WIRE 1104 96 1104 80
WIRE 32 112 32 80
WIRE 224 176 224 80
WIRE 256 176 224 176
WIRE 432 176 432 80
WIRE 464 176 432 176
WIRE 848 176 848 80
WIRE 880 176 848 176
WIRE 1024 176 1024 80
WIRE 1056 176 1024 176
WIRE 304 240 304 192
WIRE 512 240 512 192
WIRE 928 240 928 192
WIRE 1104 240 1104 192
FLAG -240 48 0
FLAG -240 -32 V+
FLAG -240 192 0
FLAG -240 112 V-
FLAG 304 -80 V+
FLAG 32 192 0
FLAG 304 240 V-
FLAG 512 -80 V+
FLAG 512 240 V-
FLAG 608 80 out_pos
FLAG 368 80 ref
FLAG 928 -80 V+
FLAG 928 240 V-
FLAG 1104 -80 V+
FLAG 1104 240 V-
FLAG 1184 80 out_neg
FLAG 1312 80 0
FLAG 704 -288 V+
FLAG 704 -80 V-
FLAG 832 -192 sig_out1
FLAG 1328 -288 V+
FLAG 1328 -80 V-
FLAG 1456 -192 sig_out2
SYMBOL pmos 256 64 M180
SYMATTR InstName M1
SYMATTR Value pmos1
SYMBOL voltage -240 -48 R0
WINDOW 123 0 0 Left 0
WINDOW 39 0 0 Left 0
SYMATTR InstName V1
SYMATTR Value {SUPPLY}
SYMBOL voltage -240 96 R0
WINDOW 123 0 0 Left 0
WINDOW 39 0 0 Left 0
SYMATTR InstName V2
SYMATTR Value {-SUPPLY}
SYMBOL voltage 32 96 R0
WINDOW 123 0 0 Left 0
WINDOW 39 0 0 Left 0
SYMATTR InstName Vsig
SYMATTR Value 1
SYMBOL nmos 256 96 R0
SYMATTR InstName M2
SYMATTR Value nmos1
SYMBOL res 96 96 R270
WINDOW 0 32 56 VTop 2
WINDOW 3 0 56 VBottom 2
SYMATTR InstName R2
SYMATTR Value 1k
SYMBOL nmos 464 96 R0
SYMATTR InstName M3
SYMATTR Value nmos2
SYMBOL pmos 464 64 M180
SYMATTR InstName M4
SYMATTR Value pmos2
SYMBOL res 640 96 R270
WINDOW 0 32 56 VTop 2
WINDOW 3 0 56 VBottom 2
SYMATTR InstName R1
SYMATTR Value 10k
SYMBOL pmos 880 64 M180
SYMATTR InstName M5
SYMATTR Value pmos2
SYMBOL nmos 880 96 R0
SYMATTR InstName M6
SYMATTR Value nmos2
SYMBOL nmos 1056 96 R0
SYMATTR InstName M7
SYMATTR Value nmos2
SYMBOL pmos 1056 64 M180
SYMATTR InstName M8
SYMATTR Value pmos2
SYMBOL res 1216 96 R270
WINDOW 0 32 56 VTop 2
WINDOW 3 0 56 VBottom 2
SYMATTR InstName R3
SYMATTR Value 10k
SYMBOL pmos 656 -192 M180
SYMATTR InstName M9
SYMBOL nmos 656 -176 R0
SYMATTR InstName M10
SYMBOL pmos 1280 -192 M180
SYMATTR InstName M11
SYMBOL nmos 1280 -176 R0
SYMATTR InstName M12
TEXT -24 312 Left 2 !.model pmos1 VDMOS(pchan Kp=50 Vto=-1.0        Rg=3 Rd=9.6m Rs=7.2m Cgdmax=1.2n Cgdmin=.05n Cgs=1.3n Cjo=.21n Is=21p Rb=12m Vds=20 Ron=24m Qg=10.5n)\n.model nmos1 VDMOS(nchan Kp=50 Vto=+1.0       Rg=3 Rd=9.6m Rs=7.2m Cgdmax=1.2n Cgdmin=.05n Cgs=1.3n Cjo=.21n Is=21p Rb=12m Vds=20 Ron=24m Qg=10.5n)\n \n.model pmos2 VDMOS(pchan Kp=5 Vto=-1.0        Rg=3 Rd=9.6m Rs=7.2m Cgdmax=1.2n Cgdmin=.05n Cgs=1.3n Cjo=.21n Is=21p Rb=12m Vds=20 Ron=24m Qg=10.5n)\n.model nmos2 VDMOS(nchan Kp=5 Vto=+1.0        Rg=3 Rd=9.6m Rs=7.2m Cgdmax=1.2n Cgdmin=.05n Cgs=1.3n Cjo=.21n Is=21p Rb=12m Vds=20 Ron=24m Qg=10.5n)
TEXT -272 400 Left 2 !.param SUPPLY=1
TEXT -272 344 Left 2 !.dc Vsig 3 -3 0.1
