Version 4
SHEET 1 880 680
WIRE 304 112 48 112
WIRE 48 144 48 112
WIRE 48 144 -48 144
WIRE 160 144 48 144
WIRE 304 160 304 112
WIRE 304 160 224 160
WIRE 384 160 304 160
WIRE 160 176 112 176
WIRE 112 192 112 176
WIRE 208 272 208 192
WIRE 208 272 -48 272
FLAG 128 32 0
FLAG 272 32 0
FLAG 112 192 0
FLAG -48 144 IN
FLAG 384 160 OUT
FLAG 128 -48 VOp
FLAG 272 -48 VOn
FLAG 176 192 VOn
FLAG 176 128 VOp
FLAG -48 272 ENABLE
SYMBOL OpAmps\\LT1190 192 160 R0
SYMATTR InstName U1
SYMBOL voltage 128 -64 R0
WINDOW 123 0 0 Left 0
WINDOW 39 0 0 Left 0
SYMATTR InstName VOp
SYMATTR Value 5
SYMBOL voltage 272 -64 R0
WINDOW 123 0 0 Left 0
WINDOW 39 0 0 Left 0
SYMATTR InstName VOn
SYMATTR Value -5
